goiania_leste_dss/TR1/CTMT_5001993.dss
! ==============================================================================
! ALIMENTADOR CTMT_5001993 - GOIANIA LESTE-11
! Subestacao: Trafo TR1 (GOL-S-TRF-TR1) | Barra MT: 1783 -> PAC_INI: 84804395001993
! ==============================================================================

! 1. Disjuntor de Saida MT do Alimentador
new line.DJ_5001993 phases=3 bus1=1783 bus2=84804395001993 switch=y r1=1e-4 x1=1e-4 length=0.001 units=km

! 2. Linhas de Media Tensao (MT)
new line.52878196 phases=3 bus1=80470735001993.1.2.3 bus2=80470725001993.1.2.3 r1=0.975 x1=0.47 length=0.023692 units=km normamps=152.0
new line.52878197 phases=3 bus1=80470745001993.1.2.3 bus2=80470735001993.1.2.3 r1=0.975 x1=0.47 length=0.022519 units=km normamps=152.0
new line.52878198 phases=3 bus1=80471585001993.1.2.3 bus2=80465215001993.1.2.3 r1=0.188 x1=0.26 length=0.03448 units=km normamps=525.0
new line.52878199 phases=3 bus1=80471735001993.1.2.3 bus2=93369405001993.1.2.3 r1=0.188 x1=0.26 length=0.026064 units=km normamps=525.0
new line.52878200 phases=3 bus1=80465215001993.1.2.3 bus2=80465225001993.1.2.3 r1=0.188 x1=0.26 length=0.037955 units=km normamps=525.0
new line.52878201 phases=3 bus1=80467725001993.1.2.3 bus2=80470415001993.1.2.3 r1=0.236 x1=0.27 length=0.031535 units=km normamps=456.0
new line.52878202 phases=3 bus1=80470415001993.1.2.3 bus2=85965845001993.1.2.3 r1=0.236 x1=0.27 length=0.011828 units=km normamps=456.0
new line.52878203 phases=3 bus1=80470425001993.1.2.3 bus2=80470435001993.1.2.3 r1=0.236 x1=0.27 length=0.034917 units=km normamps=456.0
new line.52878204 phases=3 bus1=80470435001993.1.2.3 bus2=80470445001993.1.2.3 r1=0.236 x1=0.27 length=0.048235 units=km normamps=456.0
new line.52878205 phases=3 bus1=80470445001993.1.2.3 bus2=80472265001993.1.2.3 r1=0.236 x1=0.27 length=0.044247 units=km normamps=456.0
new line.52878206 phases=3 bus1=80472265001993.1.2.3 bus2=80472275001993.1.2.3 r1=0.236 x1=0.27 length=0.038176 units=km normamps=456.0
new line.52878207 phases=3 bus1=80471985001993.1.2.3 bus2=80472285001993.1.2.3 r1=0.732 x1=0.31 length=0.018429 units=km normamps=225.0
new line.52878208 phases=3 bus1=80468875001993.1.2.3 bus2=80470755001993.1.2.3 r1=0.195 x1=0.4 length=0.018659 units=km normamps=419.0
new line.52878209 phases=3 bus1=80470755001993.1.2.3 bus2=80470745001993.1.2.3 r1=0.975 x1=0.47 length=0.014716 units=km normamps=152.0
new line.52878210 phases=3 bus1=80470755001993.1.2.3 bus2=80470765001993.1.2.3 r1=0.195 x1=0.4 length=0.036906 units=km normamps=419.0
new line.52878211 phases=3 bus1=80470765001993.1.2.3 bus2=80470775001993.1.2.3 r1=0.195 x1=0.4 length=0.027779 units=km normamps=419.0
new line.52878218 phases=3 bus1=80472155001993.1.2.3 bus2=80472295001993.1.2.3 r1=0.365 x1=0.28 length=0.033389 units=km normamps=345.0
new line.52878219 phases=3 bus1=80472315001993.1.2.3 bus2=80472305001993.1.2.3 r1=0.365 x1=0.28 length=0.018798 units=km normamps=345.0
new line.52878220 phases=3 bus1=80472305001993.1.2.3 bus2=80472345001993.1.2.3 r1=0.365 x1=0.28 length=0.017629 units=km normamps=345.0
new line.52878221 phases=3 bus1=80472345001993.1.2.3 bus2=80472365001993.1.2.3 r1=0.365 x1=0.28 length=0.019385 units=km normamps=345.0
new line.52878222 phases=3 bus1=80472365001993.1.2.3 bus2=80472375001993.1.2.3 r1=0.365 x1=0.28 length=0.021953 units=km normamps=345.0
new line.52878223 phases=3 bus1=80472365001993.1.2.3 bus2=80472355001993.1.2.3 r1=0.365 x1=0.28 length=0.001 units=km normamps=345.0
new line.52878224 phases=3 bus1=80472295001993.1.2.3 bus2=80472185001993.1.2.3 r1=0.365 x1=0.28 length=0.026842 units=km normamps=345.0
new line.52878225 phases=3 bus1=80472375001993.1.2.3 bus2=80472385001993.1.2.3 r1=0.365 x1=0.28 length=0.024414 units=km normamps=345.0
new line.52878226 phases=3 bus1=80472385001993.1.2.3 bus2=80472165001993.1.2.3 r1=0.365 x1=0.28 length=0.017364 units=km normamps=345.0
new line.52878228 phases=3 bus1=80472405001993.1.2.3 bus2=80472395001993.1.2.3 r1=0.365 x1=0.28 length=0.013281 units=km normamps=345.0
new line.52878229 phases=3 bus1=80472395001993.1.2.3 bus2=80472175001993.1.2.3 r1=0.365 x1=0.28 length=0.014321 units=km normamps=345.0
new line.52878230 phases=3 bus1=80472175001993.1.2.3 bus2=80472165001993.1.2.3 r1=0.365 x1=0.28 length=0.012221 units=km normamps=345.0
new line.52878236 phases=3 bus1=80472325001993.1.2.3 bus2=80472335001993.1.2.3 r1=0.365 x1=0.28 length=0.007156 units=km normamps=345.0
new line.52878237 phases=3 bus1=80467825001993.1.2.3 bus2=80467815001993B.1.2.3 r1=0.236 x1=0.27 length=0.049927 units=km normamps=456.0
new line.52878238 phases=3 bus1=80467815001993.1.2.3 bus2=80467855001993.1.2.3 r1=0.236 x1=0.27 length=0.029865 units=km normamps=456.0
new line.52878239 phases=3 bus1=80467855001993.1.2.3 bus2=80467865001993.1.2.3 r1=0.236 x1=0.27 length=0.032101 units=km normamps=456.0
new line.52878240 phases=3 bus1=80467835001993.1.2.3 bus2=80467875001993.1.2.3 r1=0.732 x1=0.31 length=0.032855 units=km normamps=225.0
new line.52878241 phases=3 bus1=80467825001993B.1.2.3 bus2=80467835001993.1.2.3 r1=0.732 x1=0.31 length=0.030642 units=km normamps=225.0
new line.52878244 phases=3 bus1=80467885001993.1.2.3 bus2=80467825001993.1.2.3 r1=0.236 x1=0.27 length=0.022121 units=km normamps=456.0
new line.52878245 phases=3 bus1=80467895001993.1.2.3 bus2=80467885001993B.1.2.3 r1=0.732 x1=0.31 length=0.02045 units=km normamps=225.0
new line.52878246 phases=3 bus1=80467945001993.1.2.3 bus2=80467885001993.1.2.3 r1=0.236 x1=0.27 length=0.0434 units=km normamps=456.0
new line.52878247 phases=3 bus1=80467955001993.1.2.3 bus2=80467945001993.1.2.3 r1=0.195 x1=0.4 length=0.037591 units=km normamps=419.0
new line.52878248 phases=3 bus1=80467965001993.1.2.3 bus2=80467955001993.1.2.3 r1=0.195 x1=0.4 length=0.039512 units=km normamps=419.0
new line.52878249 phases=3 bus1=80467975001993.1.2.3 bus2=80467965001993.1.2.3 r1=0.195 x1=0.4 length=0.04246 units=km normamps=419.0
new line.52878250 phases=3 bus1=80467985001993.1.2.3 bus2=80467975001993.1.2.3 r1=0.195 x1=0.4 length=0.049451 units=km normamps=419.0
new line.52878251 phases=3 bus1=80468045001993.1.2.3 bus2=80467935001993.1.2.3 r1=0.732 x1=0.31 length=0.010869 units=km normamps=225.0
new line.52878252 phases=3 bus1=80467935001993.1.2.3 bus2=80468055001993.1.2.3 r1=0.732 x1=0.31 length=0.033908 units=km normamps=225.0
new line.52878253 phases=3 bus1=80468065001993.1.2.3 bus2=80468045001993.1.2.3 r1=0.732 x1=0.31 length=0.022703 units=km normamps=225.0
new line.52878254 phases=3 bus1=80468075001993.1.2.3 bus2=80468065001993.1.2.3 r1=0.732 x1=0.31 length=0.02982 units=km normamps=225.0
new line.52878256 phases=3 bus1=80468085001993.1.2.3 bus2=80468045001993.1.2.3 r1=2.389 x1=0.52 length=0.007801 units=km normamps=90.0
new line.52878257 phases=3 bus1=80468095001993.1.2.3 bus2=80467895001993.1.2.3 r1=0.732 x1=0.31 length=0.035003 units=km normamps=225.0
new line.52878258 phases=3 bus1=80468055001993.1.2.3 bus2=80468095001993.1.2.3 r1=0.732 x1=0.31 length=0.012836 units=km normamps=225.0
new line.52878259 phases=3 bus1=80468285001993.1.2.3 bus2=80467985001993.1.2.3 r1=0.195 x1=0.4 length=0.032419 units=km normamps=419.0
new line.52878260 phases=3 bus1=80468305001993.1.2.3 bus2=80468285001993.1.2.3 r1=0.195 x1=0.4 length=0.036779 units=km normamps=419.0
new line.52878262 phases=3 bus1=80468345001993.1.2.3 bus2=80468305001993.1.2.3 r1=0.195 x1=0.4 length=0.031722 units=km normamps=419.0
new line.52878263 phases=3 bus1=80468355001993.1.2.3 bus2=80468345001993.1.2.3 r1=0.195 x1=0.4 length=0.041556 units=km normamps=419.0
new line.52878264 phases=3 bus1=80468355001993B.1.2.3 bus2=80468365001993.1.2.3 r1=0.975 x1=0.47 length=0.03812 units=km normamps=152.0
new line.52878265 phases=3 bus1=80468365001993.1.2.3 bus2=80468425001993.1.2.3 r1=0.975 x1=0.47 length=0.01852 units=km normamps=152.0
new line.52878266 phases=3 bus1=80468425001993.1.2.3 bus2=80468435001993.1.2.3 r1=0.975 x1=0.47 length=0.032876 units=km normamps=152.0
new line.52878267 phases=3 bus1=80468435001993.1.2.3 bus2=80468445001993.1.2.3 r1=0.975 x1=0.47 length=0.033173 units=km normamps=152.0
new line.52878268 phases=3 bus1=80468445001993.1.2.3 bus2=80468455001993.1.2.3 r1=0.975 x1=0.47 length=0.030841 units=km normamps=152.0
new line.52878269 phases=3 bus1=80468455001993.1.2.3 bus2=80468465001993.1.2.3 r1=0.975 x1=0.47 length=0.043712 units=km normamps=152.0
new line.52878270 phases=3 bus1=80468475001993.1.2.3 bus2=80468465001993.1.2.3 r1=0.975 x1=0.47 length=0.010277 units=km normamps=152.0
new line.52878271 phases=3 bus1=80468495001993.1.2.3 bus2=80468455001993.1.2.3 r1=0.975 x1=0.47 length=0.029732 units=km normamps=152.0
new line.52878272 phases=3 bus1=80468515001993.1.2.3 bus2=80468495001993.1.2.3 r1=0.975 x1=0.47 length=0.033565 units=km normamps=152.0
new line.52878273 phases=3 bus1=80468405001993.1.2.3 bus2=80468355001993.1.2.3 r1=0.195 x1=0.4 length=0.044532 units=km normamps=419.0
new line.52878274 phases=3 bus1=80468525001993.1.2.3 bus2=80468405001993.1.2.3 r1=0.195 x1=0.4 length=0.036009 units=km normamps=419.0
new line.52878275 phases=3 bus1=80468535001993.1.2.3 bus2=80468525001993.1.2.3 r1=0.236 x1=0.27 length=0.016735 units=km normamps=456.0
new line.52878276 phases=3 bus1=80468545001993.1.2.3 bus2=80468535001993.1.2.3 r1=0.236 x1=0.27 length=0.035082 units=km normamps=456.0
new line.52878277 phases=3 bus1=80468555001993.1.2.3 bus2=80468545001993.1.2.3 r1=0.236 x1=0.27 length=0.03307 units=km normamps=456.0
new line.52878278 phases=3 bus1=80468565001993.1.2.3 bus2=80468555001993.1.2.3 r1=0.195 x1=0.4 length=0.032107 units=km normamps=419.0
new line.52878279 phases=3 bus1=80468575001993.1.2.3 bus2=80468565001993.1.2.3 r1=0.195 x1=0.4 length=0.029646 units=km normamps=419.0
new line.52878280 phases=3 bus1=80468585001993.1.2.3 bus2=80468575001993.1.2.3 r1=0.195 x1=0.4 length=0.034119 units=km normamps=419.0
new line.52878281 phases=3 bus1=80468595001993.1.2.3 bus2=80468545001993.1.2.3 r1=0.188 x1=0.26 length=0.00597 units=km normamps=525.0
new line.52878282 phases=3 bus1=80468975001993.1.2.3 bus2=80470095001993.1.2.3 r1=0.195 x1=0.4 length=0.048104 units=km normamps=419.0
new line.52878283 phases=3 bus1=80470095001993.1.2.3 bus2=80470105001993.1.2.3 r1=0.195 x1=0.4 length=0.036826 units=km normamps=419.0
new line.52878284 phases=3 bus1=80470115001993.1.2.3 bus2=80470125001993.1.2.3 r1=0.195 x1=0.4 length=0.02791 units=km normamps=419.0
new line.52878285 phases=3 bus1=80470125001993.1.2.3 bus2=80470135001993.1.2.3 r1=0.195 x1=0.4 length=0.034892 units=km normamps=419.0
new line.52878286 phases=3 bus1=80470145001993.1.2.3 bus2=80470135001993.1.2.3 r1=0.195 x1=0.4 length=0.03083 units=km normamps=419.0
new line.52878287 phases=3 bus1=80470155001993.1.2.3 bus2=80470145001993.1.2.3 r1=0.195 x1=0.4 length=0.044017 units=km normamps=419.0
new line.52878288 phases=3 bus1=80470165001993.1.2.3 bus2=80470155001993.1.2.3 r1=0.195 x1=0.4 length=0.036816 units=km normamps=419.0
new line.52878289 phases=3 bus1=80470175001993.1.2.3 bus2=80470165001993.1.2.3 r1=0.195 x1=0.4 length=0.034767 units=km normamps=419.0
new line.52878290 phases=3 bus1=80470105001993.1.2.3 bus2=80470185001993.1.2.3 r1=0.195 x1=0.4 length=0.038847 units=km normamps=419.0
new line.52878291 phases=3 bus1=80470195001993.1.2.3 bus2=80470185001993B.1.2.3 r1=0.975 x1=0.47 length=0.009614 units=km normamps=152.0
new line.52878292 phases=3 bus1=80470205001993.1.2.3 bus2=80470215001993.1.2.3 r1=0.195 x1=0.4 length=0.036812 units=km normamps=419.0
new line.52878293 phases=3 bus1=80470215001993.1.2.3 bus2=80470175001993.1.2.3 r1=0.195 x1=0.4 length=0.035804 units=km normamps=419.0
new line.52878294 phases=3 bus1=80470225001993.1.2.3 bus2=80470175001993.1.2.3 r1=0.195 x1=0.4 length=0.007158 units=km normamps=419.0
new line.52878295 phases=3 bus1=80470235001993.1.2.3 bus2=80470205001993.1.2.3 r1=0.195 x1=0.4 length=0.036816 units=km normamps=419.0
new line.52878296 phases=3 bus1=80470245001993.1.2.3 bus2=80470235001993.1.2.3 r1=0.195 x1=0.4 length=0.033806 units=km normamps=419.0
new line.52878297 phases=3 bus1=80470185001993.1.2.3 bus2=80470245001993.1.2.3 r1=0.195 x1=0.4 length=0.035848 units=km normamps=419.0
new line.52878298 phases=3 bus1=80471485001993.1.2.3 bus2=80471475001993.1.2.3 r1=0.195 x1=0.4 length=0.018017 units=km normamps=419.0
new line.52878299 phases=3 bus1=80471495001993.1.2.3 bus2=80471455001993.1.2.3 r1=0.195 x1=0.4 length=0.017502 units=km normamps=419.0
new line.52878300 phases=3 bus1=80471505001993.1.2.3 bus2=80471515001993.1.2.3 r1=0.195 x1=0.4 length=0.028078 units=km normamps=419.0
new line.52878301 phases=3 bus1=80465735001993.1.2.3 bus2=80465745001993.1.2.3 r1=0.188 x1=0.26 length=0.016957 units=km normamps=525.0
new line.52878302 phases=3 bus1=80465745001993.1.2.3 bus2=80465755001993.1.2.3 r1=0.188 x1=0.26 length=0.046595 units=km normamps=525.0
new line.52878303 phases=3 bus1=80465755001993.1.2.3 bus2=80465765001993.1.2.3 r1=0.188 x1=0.26 length=0.011305 units=km normamps=525.0
new line.52878305 phases=3 bus1=80465775001993.1.2.3 bus2=80463485001993.1.2.3 r1=0.188 x1=0.26 length=0.029279 units=km normamps=525.0
new line.52878306 phases=3 bus1=80463485001993.1.2.3 bus2=80463495001993.1.2.3 r1=0.188 x1=0.26 length=0.02628 units=km normamps=525.0
new line.52878307 phases=3 bus1=80463495001993.1.2.3 bus2=80463505001993.1.2.3 r1=0.188 x1=0.26 length=0.033495 units=km normamps=525.0
new line.52878308 phases=3 bus1=80463505001993.1.2.3 bus2=80463515001993.1.2.3 r1=0.188 x1=0.26 length=0.045573 units=km normamps=525.0
new line.52878309 phases=3 bus1=80463515001993.1.2.3 bus2=80465405001993.1.2.3 r1=0.188 x1=0.26 length=0.029729 units=km normamps=525.0
new line.52878313 phases=3 bus1=80468685001993.1.2.3 bus2=80468675001993.1.2.3 r1=0.975 x1=0.47 length=0.03331 units=km normamps=152.0
new line.52878314 phases=3 bus1=80468675001993.1.2.3 bus2=80468715001993.1.2.3 r1=0.975 x1=0.47 length=0.035519 units=km normamps=152.0
new line.52878315 phases=3 bus1=80468715001993.1.2.3 bus2=80468725001993.1.2.3 r1=0.975 x1=0.47 length=0.031126 units=km normamps=152.0
new line.52878316 phases=3 bus1=80468605001993.1.2.3 bus2=80470325001993.1.2.3 r1=0.975 x1=0.47 length=0.014421 units=km normamps=152.0
new line.52878317 phases=3 bus1=80468805001993.1.2.3 bus2=80470335001993.1.2.3 r1=0.236 x1=0.27 length=0.030843 units=km normamps=456.0
new line.52878318 phases=3 bus1=80470335001993.1.2.3 bus2=80470345001993.1.2.3 r1=0.236 x1=0.27 length=0.040327 units=km normamps=456.0
new line.52878319 phases=3 bus1=80470345001993.1.2.3 bus2=80468835001993.1.2.3 r1=0.236 x1=0.27 length=0.041813 units=km normamps=456.0
new line.52878320 phases=3 bus1=80468835001993.1.2.3 bus2=80468845001993.1.2.3 r1=0.236 x1=0.27 length=0.053863 units=km normamps=456.0
new line.52878321 phases=3 bus1=80471985001993.1.2.3 bus2=80471975001993.1.2.3 r1=0.732 x1=0.31 length=0.02787 units=km normamps=225.0
new line.52878322 phases=3 bus1=80469615001993.1.2.3 bus2=80469625001993B.1.2.3 r1=0.236 x1=0.27 length=0.026531 units=km normamps=456.0
new line.52878325 phases=3 bus1=80471715001993.1.2.3 bus2=80471725001993.1.2.3 r1=0.236 x1=0.27 length=0.030349 units=km normamps=456.0
new line.52878326 phases=3 bus1=80465225001993.1.2.3 bus2=80465345001993.1.2.3 r1=0.188 x1=0.26 length=0.047435 units=km normamps=525.0
new line.52878327 phases=3 bus1=80471725001993.1.2.3 bus2=80471735001993.1.2.3 r1=0.236 x1=0.27 length=0.036443 units=km normamps=456.0
new line.52878328 phases=3 bus1=80470775001993.1.2.3 bus2=80470355001993.1.2.3 r1=0.365 x1=0.28 length=0.027599 units=km normamps=345.0
new line.52878329 phases=3 bus1=80470355001993.1.2.3 bus2=80470365001993.1.2.3 r1=0.365 x1=0.28 length=0.025645 units=km normamps=345.0
new line.52878330 phases=3 bus1=80470365001993.1.2.3 bus2=80470375001993.1.2.3 r1=0.365 x1=0.28 length=0.070666 units=km normamps=345.0
new line.52878331 phases=3 bus1=80470375001993.1.2.3 bus2=80470385001993.1.2.3 r1=0.365 x1=0.28 length=0.073301 units=km normamps=345.0
new line.52878332 phases=3 bus1=80470385001993.1.2.3 bus2=80470395001993.1.2.3 r1=0.365 x1=0.28 length=0.024409 units=km normamps=345.0
new line.52878333 phases=3 bus1=80469615001993.1.2.3 bus2=80467715001993.1.2.3 r1=0.236 x1=0.27 length=0.035041 units=km normamps=456.0
new line.52878334 phases=3 bus1=80467715001993.1.2.3 bus2=94480965001993.1.2.3 r1=0.236 x1=0.27 length=0.008017 units=km normamps=456.0
new line.52878336 phases=3 bus1=80471775001993.1.2.3 bus2=80471765001993.1.2.3 r1=0.188 x1=0.26 length=0.010428 units=km normamps=525.0
new line.52878349 phases=3 bus1=80471515001993.1.2.3 bus2=80471525001993.1.2.3 r1=0.195 x1=0.4 length=0.029084 units=km normamps=419.0
new line.52878350 phases=3 bus1=80471525001993.1.2.3 bus2=80471535001993.1.2.3 r1=0.195 x1=0.4 length=0.04071 units=km normamps=419.0
new line.52878351 phases=3 bus1=80472275001993.1.2.3 bus2=80468845001993.1.2.3 r1=0.236 x1=0.27 length=0.041539 units=km normamps=456.0
new line.52878353 phases=3 bus1=80471495001993.1.2.3 bus2=80471505001993.1.2.3 r1=0.195 x1=0.4 length=0.022855 units=km normamps=419.0
new line.52878354 phases=3 bus1=80471535001993.1.2.3 bus2=80471545001993B.1.2.3 r1=0.195 x1=0.4 length=0.0377 units=km normamps=419.0
new line.52878355 phases=3 bus1=80471545001993.1.2.3 bus2=80471555001993.1.2.3 r1=0.195 x1=0.4 length=0.044396 units=km normamps=419.0
new line.52878356 phases=3 bus1=80471555001993.1.2.3 bus2=80471565001993.1.2.3 r1=0.195 x1=0.4 length=0.038206 units=km normamps=419.0
new line.52878357 phases=3 bus1=80471565001993.1.2.3 bus2=80471575001993.1.2.3 r1=0.195 x1=0.4 length=0.032728 units=km normamps=419.0
new line.52878358 phases=3 bus1=80471575001993.1.2.3 bus2=80468585001993.1.2.3 r1=0.195 x1=0.4 length=0.063573 units=km normamps=419.0
new line.52878359 phases=3 bus1=80465345001993.1.2.3 bus2=80465355001993.1.2.3 r1=0.188 x1=0.26 length=0.037782 units=km normamps=525.0
new line.52878360 phases=3 bus1=80465355001993.1.2.3 bus2=80465735001993.1.2.3 r1=0.188 x1=0.26 length=0.053544 units=km normamps=525.0
new line.52878364 phases=3 bus1=80468745001993.1.2.3 bus2=80468735001993.1.2.3 r1=0.975 x1=0.47 length=0.033861 units=km normamps=152.0
new line.52878365 phases=3 bus1=80468755001993B.1.2.3 bus2=94595495001993.1.2.3 r1=0.975 x1=0.47 length=0.010443 units=km normamps=152.0
new line.52878367 phases=3 bus1=80472435001993.1.2.3 bus2=80471855001993.1.2.3 r1=0.188 x1=0.26 length=0.026329 units=km normamps=525.0
new line.52878369 phases=3 bus1=80468775001993.1.2.3 bus2=80468785001993.1.2.3 r1=0.195 x1=0.4 length=0.028754 units=km normamps=419.0
new line.52878370 phases=3 bus1=80468785001993.1.2.3 bus2=80468795001993.1.2.3 r1=0.195 x1=0.4 length=0.041071 units=km normamps=419.0
new line.52878371 phases=3 bus1=80468795001993.1.2.3 bus2=80468805001993.1.2.3 r1=0.195 x1=0.4 length=0.053436 units=km normamps=419.0
new line.52878372 phases=3 bus1=80468805001993.1.2.3 bus2=80468815001993.1.2.3 r1=0.195 x1=0.4 length=0.048661 units=km normamps=419.0
new line.52878373 phases=3 bus1=80468815001993.1.2.3 bus2=80468825001993.1.2.3 r1=0.195 x1=0.4 length=0.041017 units=km normamps=419.0
new line.52878374 phases=3 bus1=80468825001993.1.2.3 bus2=80468855001993.1.2.3 r1=0.975 x1=0.47 length=0.010689 units=km normamps=152.0
new line.52878375 phases=3 bus1=80468825001993.1.2.3 bus2=80468865001993.1.2.3 r1=0.195 x1=0.4 length=0.035789 units=km normamps=419.0
new line.52878376 phases=3 bus1=80468865001993.1.2.3 bus2=80468875001993.1.2.3 r1=0.195 x1=0.4 length=0.020466 units=km normamps=419.0
new line.52878377 phases=3 bus1=80468885001993.1.2.3 bus2=80468765001993.1.2.3 r1=0.195 x1=0.4 length=0.03989 units=km normamps=419.0
new line.52878378 phases=3 bus1=80468895001993.1.2.3 bus2=80468885001993.1.2.3 r1=0.195 x1=0.4 length=0.033757 units=km normamps=419.0
new line.52878379 phases=3 bus1=80468905001993.1.2.3 bus2=80468895001993.1.2.3 r1=0.195 x1=0.4 length=0.02967 units=km normamps=419.0
new line.52878380 phases=3 bus1=80468915001993.1.2.3 bus2=80468905001993.1.2.3 r1=0.195 x1=0.4 length=0.029721 units=km normamps=419.0
new line.52878381 phases=3 bus1=80468925001993.1.2.3 bus2=80468915001993.1.2.3 r1=0.195 x1=0.4 length=0.015337 units=km normamps=419.0
new line.52878382 phases=3 bus1=80468925001993.1.2.3 bus2=80468935001993.1.2.3 r1=0.975 x1=0.47 length=0.01446 units=km normamps=152.0
new line.52878383 phases=3 bus1=80468945001993.1.2.3 bus2=80468935001993.1.2.3 r1=0.975 x1=0.47 length=0.007158 units=km normamps=152.0
new line.52878384 phases=3 bus1=80468965001993.1.2.3 bus2=94201955001993.1.2.3 r1=0.195 x1=0.4 length=0.032421 units=km normamps=419.0
new line.52878385 phases=3 bus1=80468965001993.1.2.3 bus2=80468975001993.1.2.3 r1=0.195 x1=0.4 length=0.027599 units=km normamps=419.0
new line.52878387 phases=3 bus1=80468985001993.1.2.3 bus2=94201945001993.1.2.3 r1=0.195 x1=0.4 length=0.0344 units=km normamps=419.0
new line.52878388 phases=3 bus1=80468995001993.1.2.3 bus2=80468985001993.1.2.3 r1=0.195 x1=0.4 length=0.028813 units=km normamps=419.0
new line.52878389 phases=3 bus1=80469005001993B.1.2.3 bus2=80468925001993.1.2.3 r1=0.195 x1=0.4 length=0.023539 units=km normamps=419.0
new line.52878390 phases=3 bus1=80468995001993.1.2.3 bus2=80469005001993.1.2.3 r1=0.195 x1=0.4 length=0.017552 units=km normamps=419.0
new line.52878395 phases=3 bus1=80469045001993.1.2.3 bus2=80469055001993.1.2.3 r1=0.236 x1=0.27 length=0.031739 units=km normamps=456.0
new line.52878396 phases=3 bus1=80469055001993.1.2.3 bus2=80469065001993.1.2.3 r1=0.236 x1=0.27 length=0.039056 units=km normamps=456.0
new line.52878397 phases=3 bus1=80469065001993.1.2.3 bus2=89825095001993.1.2.3 r1=0.236 x1=0.27 length=0.015625 units=km normamps=456.0
new line.52878399 phases=3 bus1=80469105001993.1.2.3 bus2=80469115001993.1.2.3 r1=0.975 x1=0.47 length=0.046032 units=km normamps=152.0
new line.52878400 phases=3 bus1=80469125001993.1.2.3 bus2=80468725001993.1.2.3 r1=0.975 x1=0.47 length=0.023776 units=km normamps=152.0
new line.52878402 phases=3 bus1=80468735001993.1.2.3 bus2=80469125001993.1.2.3 r1=0.975 x1=0.47 length=0.007261 units=km normamps=152.0
new line.52878403 phases=3 bus1=80469125001993.1.2.3 bus2=80469135001993.1.2.3 r1=0.975 x1=0.47 length=0.009389 units=km normamps=152.0
new line.52878404 phases=3 bus1=80469115001993.1.2.3 bus2=80469125001993.1.2.3 r1=0.975 x1=0.47 length=0.03972 units=km normamps=152.0
new line.52878405 phases=3 bus1=80469135001993.1.2.3 bus2=80469145001993.1.2.3 r1=0.975 x1=0.47 length=0.029724 units=km normamps=152.0
new line.52878406 phases=3 bus1=80469145001993.1.2.3 bus2=80469155001993.1.2.3 r1=0.975 x1=0.47 length=0.027458 units=km normamps=152.0
new line.52878407 phases=3 bus1=80469155001993.1.2.3 bus2=88305865001993.1.2.3 r1=0.975 x1=0.47 length=0.016128 units=km normamps=152.0
new line.52878443 phases=3 bus1=80469555001993.1.2.3 bus2=80469565001993.1.2.3 r1=0.236 x1=0.27 length=0.050098 units=km normamps=456.0
new line.52878444 phases=3 bus1=80469565001993.1.2.3 bus2=80469575001993.1.2.3 r1=0.236 x1=0.27 length=0.020482 units=km normamps=456.0
new line.52878450 phases=3 bus1=80469565001993.1.2.3 bus2=80469595001993.1.2.3 r1=0.975 x1=0.47 length=0.010783 units=km normamps=152.0
new line.52878451 phases=3 bus1=80469605001993.1.2.3 bus2=80469595001993.1.2.3 r1=0.975 x1=0.47 length=0.015076 units=km normamps=152.0
new line.52878452 phases=3 bus1=80467875001993.1.2.3 bus2=80471865001993.1.2.3 r1=0.732 x1=0.31 length=0.038911 units=km normamps=225.0
new line.52878453 phases=3 bus1=80471865001993.1.2.3 bus2=80471875001993.1.2.3 r1=0.732 x1=0.31 length=0.030204 units=km normamps=225.0
new line.52878454 phases=3 bus1=80471875001993.1.2.3 bus2=80471885001993.1.2.3 r1=0.732 x1=0.31 length=0.030632 units=km normamps=225.0
new line.52878455 phases=3 bus1=80471885001993.1.2.3 bus2=80471895001993.1.2.3 r1=0.732 x1=0.31 length=0.03685 units=km normamps=225.0
new line.52878456 phases=3 bus1=80471895001993.1.2.3 bus2=80471905001993.1.2.3 r1=0.732 x1=0.31 length=0.030291 units=km normamps=225.0
new line.52878457 phases=3 bus1=80471905001993.1.2.3 bus2=80471915001993.1.2.3 r1=0.732 x1=0.31 length=0.033305 units=km normamps=225.0
new line.52878459 phases=3 bus1=80471985001993.1.2.3 bus2=80471705001993B.1.2.3 r1=0.732 x1=0.31 length=0.028922 units=km normamps=225.0
new line.52878460 phases=3 bus1=80471995001993.1.2.3 bus2=80471905001993.1.2.3 r1=0.732 x1=0.31 length=0.01866 units=km normamps=225.0
new line.52878461 phases=3 bus1=80472005001993.1.2.3 bus2=80471995001993.1.2.3 r1=0.732 x1=0.31 length=0.016168 units=km normamps=225.0
new line.52878462 phases=3 bus1=80472015001993.1.2.3 bus2=80472005001993.1.2.3 r1=0.732 x1=0.31 length=0.018206 units=km normamps=225.0
new line.52878463 phases=3 bus1=80472025001993.1.2.3 bus2=80472015001993.1.2.3 r1=0.732 x1=0.31 length=0.00636 units=km normamps=225.0
new line.52878464 phases=3 bus1=80470115001993.1.2.3 bus2=80470265001993.1.2.3 r1=0.195 x1=0.4 length=0.024732 units=km normamps=419.0
new line.52878472 phases=3 bus1=80471455001993.1.2.3 bus2=80471465001993.1.2.3 r1=0.195 x1=0.4 length=0.025582 units=km normamps=419.0
new line.52878473 phases=3 bus1=80471465001993.1.2.3 bus2=80471475001993.1.2.3 r1=0.195 x1=0.4 length=0.041974 units=km normamps=419.0
new line.52878474 phases=3 bus1=80471475001993.1.2.3 bus2=80470265001993.1.2.3 r1=0.195 x1=0.4 length=0.081858 units=km normamps=419.0
new line.52878475 phases=3 bus1=80465755001993B.1.2.3 bus2=80472155001993.1.2.3 r1=0.365 x1=0.28 length=0.035756 units=km normamps=345.0
new line.52878478 phases=3 bus1=80468615001993.1.2.3 bus2=80468705001993.1.2.3 r1=0.975 x1=0.47 length=0.010404 units=km normamps=152.0
new line.52878479 phases=3 bus1=80468705001993.1.2.3 bus2=80468695001993.1.2.3 r1=0.975 x1=0.47 length=0.033873 units=km normamps=152.0
new line.52878480 phases=3 bus1=80468695001993.1.2.3 bus2=87947565001993.1.2.3 r1=0.975 x1=0.47 length=0.019921 units=km normamps=152.0
new line.52878483 phases=3 bus1=80469665001993.1.2.3 bus2=93152645001993.1.2.3 r1=0.195 x1=0.4 length=0.010002 units=km normamps=419.0
new line.52878488 phases=3 bus1=80471685001993.1.2.3 bus2=95534135001993.1.2.3 r1=0.732 x1=0.31 length=0.004426 units=km normamps=225.0
new line.52878489 phases=3 bus1=80467865001993.1.2.3 bus2=80471695001993.1.2.3 r1=0.236 x1=0.27 length=0.012356 units=km normamps=456.0
new line.52878490 phases=3 bus1=80471695001993.1.2.3 bus2=80471685001993B.1.2.3 r1=0.732 x1=0.31 length=0.007447 units=km normamps=225.0
new line.52878491 phases=3 bus1=80471705001993.1.2.3 bus2=80471695001993.1.2.3 r1=0.732 x1=0.31 length=0.04071 units=km normamps=225.0
new line.52878492 phases=3 bus1=80471695001993.1.2.3 bus2=80471715001993.1.2.3 r1=0.236 x1=0.27 length=0.036178 units=km normamps=456.0
new line.52878493 phases=3 bus1=80471765001993.1.2.3 bus2=80471835001993.1.2.3 r1=0.188 x1=0.26 length=0.010933 units=km normamps=525.0
new line.52878494 phases=3 bus1=80471835001993.1.2.3 bus2=80471845001993.1.2.3 r1=0.188 x1=0.26 length=0.006704 units=km normamps=525.0
new line.52878495 phases=3 bus1=80471845001993.1.2.3 bus2=80471855001993B.1.2.3 r1=0.188 x1=0.26 length=0.007954 units=km normamps=525.0
new line.52878496 phases=3 bus1=80471795001993.1.2.3 bus2=80471785001993.1.2.3 r1=0.188 x1=0.26 length=0.008432 units=km normamps=525.0
new line.52878497 phases=3 bus1=80471825001993.1.2.3 bus2=80471775001993.1.2.3 r1=0.188 x1=0.26 length=0.006548 units=km normamps=525.0
new line.52878498 phases=3 bus1=80471805001993.1.2.3 bus2=80471795001993.1.2.3 r1=0.188 x1=0.26 length=0.00772 units=km normamps=525.0
new line.52878499 phases=3 bus1=80471785001993.1.2.3 bus2=80471815001993.1.2.3 r1=0.188 x1=0.26 length=0.005214 units=km normamps=525.0
...

! 3. Chaves Seccionadoras MT
new line.SC_5270992 phases=3 bus1=80471705001993.1.2.3 bus2=80471705001993B.1.2.3 switch=y r1=1e-4 x1=1e-4 length=0.001 units=km
new line.SC_5270993 phases=3 bus1=80465755001993.1.2.3 bus2=80465755001993B.1.2.3 switch=y r1=1e-4 x1=1e-4 length=0.001 units=km
new line.SC_5270994 phases=3 bus1=80468755001993.1.2.3 bus2=80468755001993B.1.2.3 switch=y r1=1e-4 x1=1e-4 length=0.001 units=km
new line.SC_5271000 phases=3 bus1=80467825001993.1.2.3 bus2=80467825001993B.1.2.3 switch=y r1=1e-4 x1=1e-4 length=0.001 units=km
new line.SC_5271001 phases=3 bus1=80468355001993.1.2.3 bus2=80468355001993B.1.2.3 switch=y r1=1e-4 x1=1e-4 length=0.001 units=km
new line.SC_5271002 phases=3 bus1=80467885001993.1.2.3 bus2=80467885001993B.1.2.3 switch=y r1=1e-4 x1=1e-4 length=0.001 units=km
new line.SC_5271032 phases=3 bus1=80471855001993.1.2.3 bus2=80471855001993B.1.2.3 switch=y r1=1e-4 x1=1e-4 length=0.001 units=km
new line.SC_5271033 phases=3 bus1=80471685001993.1.2.3 bus2=80471685001993B.1.2.3 switch=y r1=1e-4 x1=1e-4 length=0.001 units=km
new line.SC_5271034 phases=3 bus1=80471545001993.1.2.3 bus2=80471545001993B.1.2.3 switch=y r1=1e-4 x1=1e-4 length=0.001 units=km
new line.SC_5271035 phases=3 bus1=80469005001993.1.2.3 bus2=80469005001993B.1.2.3 switch=y r1=1e-4 x1=1e-4 length=0.001 units=km
new line.SC_5271036 phases=3 bus1=80469625001993.1.2.3 bus2=80469625001993B.1.2.3 switch=y r1=1e-4 x1=1e-4 length=0.001 units=km
new line.SC_5271905 phases=3 bus1=80471455001993.1.2.3 bus2=80471455001993B.1.2.3 switch=y r1=1e-4 x1=1e-4 length=0.001 units=km
new line.SC_5300042 phases=3 bus1=80470185001993.1.2.3 bus2=80470185001993B.1.2.3 switch=y r1=1e-4 x1=1e-4 length=0.001 units=km
new line.SC_5300656 phases=3 bus1=80471915001993.1.2.3 bus2=80471915001993B.1.2.3 switch=y r1=1e-4 x1=1e-4 length=0.001 units=km
new line.SC_5455230 phases=3 bus1=80469055001993.1.2.3 bus2=80469055001993B.1.2.3 switch=y r1=1e-4 x1=1e-4 length=0.001 units=km
new line.SC_5561776 phases=3 bus1=80469685001993.1.2.3 bus2=80469685001993B.1.2.3 switch=y r1=1e-4 x1=1e-4 length=0.001 units=km
new line.SC_5577750 phases=3 bus1=92372035001993.1.2.3 bus2=92372035001993B.1.2.3 switch=y r1=1e-4 x1=1e-4 length=0.001 units=km
open line.SC_5577750 1
new line.SC_5577753 phases=3 bus1=92371825001993.1.2.3 bus2=92371825001993B.1.2.3 switch=y r1=1e-4 x1=1e-4 length=0.001 units=km
new line.SC_5579176 phases=3 bus1=80469065001993.1.2.3 bus2=80469065001993B.1.2.3 switch=y r1=1e-4 x1=1e-4 length=0.001 units=km
new line.SC_5584854 phases=3 bus1=89982315001993.1.2.3 bus2=89982315001993B.1.2.3 switch=y r1=1e-4 x1=1e-4 length=0.001 units=km
open line.SC_5584854 1
new line.SC_5584856 phases=3 bus1=80538485001993.1.2.3 bus2=80538485001993B.1.2.3 switch=y r1=1e-4 x1=1e-4 length=0.001 units=km
open line.SC_5584856 1
new line.SC_5589390 phases=3 bus1=96921555001993.1.2.3 bus2=96921555001993B.1.2.3 switch=y r1=1e-4 x1=1e-4 length=0.001 units=km
open line.SC_5589390 1
new line.SC_5601339 phases=3 bus1=80500965001993.1.2.3 bus2=80500965001993B.1.2.3 switch=y r1=1e-4 x1=1e-4 length=0.001 units=km
new line.SC_5601340 phases=3 bus1=80472295001993.1.2.3 bus2=80472295001993B.1.2.3 switch=y r1=1e-4 x1=1e-4 length=0.001 units=km
new line.SC_5601341 phases=3 bus1=80472175001993.1.2.3 bus2=80472175001993B.1.2.3 switch=y r1=1e-4 x1=1e-4 length=0.001 units=km
new line.SC_5642239 phases=3 bus1=93152635001993.1.2.3 bus2=93152635001993B.1.2.3 switch=y r1=1e-4 x1=1e-4 length=0.001 units=km
new line.SC_5646800 phases=3 bus1=93152665001993.1.2.3 bus2=93152665001993B.1.2.3 switch=y r1=1e-4 x1=1e-4 length=0.001 units=km
open line.SC_5646800 1
new line.SC_5653571 phases=3 bus1=80467815001993.1.2.3 bus2=80467815001993B.1.2.3 switch=y r1=1e-4 x1=1e-4 length=0.001 units=km
new line.SC_5683559 phases=3 bus1=94201815001993.1.2.3 bus2=94201815001993B.1.2.3 switch=y r1=1e-4 x1=1e-4 length=0.001 units=km
open line.SC_5683559 1
new line.SC_5683569 phases=3 bus1=80468955001993.1.2.3 bus2=80468955001993B.1.2.3 switch=y r1=1e-4 x1=1e-4 length=0.001 units=km
new line.SC_5697272 phases=3 bus1=94480945001993.1.2.3 bus2=94480945001993B.1.2.3 switch=y r1=1e-4 x1=1e-4 length=0.001 units=km
new line.SC_5697273 phases=3 bus1=94480985001993.1.2.3 bus2=94480985001993B.1.2.3 switch=y r1=1e-4 x1=1e-4 length=0.001 units=km
open line.SC_5697273 1
new line.SC_5704039 phases=3 bus1=94595475001993.1.2.3 bus2=94595475001993B.1.2.3 switch=y r1=1e-4 x1=1e-4 length=0.001 units=km
new line.SC_5704040 phases=3 bus1=94595515001993.1.2.3 bus2=94595515001993B.1.2.3 switch=y r1=1e-4 x1=1e-4 length=0.001 units=km
open line.SC_5704040 1
new line.SC_5722591 phases=3 bus1=89825095001993.1.2.3 bus2=89825095001993B.1.2.3 switch=y r1=1e-4 x1=1e-4 length=0.001 units=km
new line.SC_5728979 phases=3 bus1=95534175001993.1.2.3 bus2=95534175001993B.1.2.3 switch=y r1=1e-4 x1=1e-4 length=0.001 units=km
open line.SC_5728979 1
new line.SC_5728987 phases=3 bus1=80469895001993.1.2.3 bus2=80469895001993B.1.2.3 switch=y r1=1e-4 x1=1e-4 length=0.001 units=km
open line.SC_5728987 1
new line.SC_5728993 phases=3 bus1=95534295001993.1.2.3 bus2=95534295001993B.1.2.3 switch=y r1=1e-4 x1=1e-4 length=0.001 units=km
open line.SC_5728993 1
new line.SC_5751886 phases=3 bus1=96653735001993.1.2.3 bus2=96653735001993B.1.2.3 switch=y r1=1e-4 x1=1e-4 length=0.001 units=km
open line.SC_5751886 1
new line.SC_5751887 phases=3 bus1=96653705001993.1.2.3 bus2=96653705001993B.1.2.3 switch=y r1=1e-4 x1=1e-4 length=0.001 units=km
open line.SC_5751887 1
new line.SC_5784822 phases=3 bus1=80469555001993.1.2.3 bus2=80469555001993B.1.2.3 switch=y r1=1e-4 x1=1e-4 length=0.001 units=km
new line.SC_5785660 phases=3 bus1=97957455001993.1.2.3 bus2=97957455001993B.1.2.3 switch=y r1=1e-4 x1=1e-4 length=0.001 units=km
new line.SC_SA0002816 phases=3 bus1=SA0002816.1.2.3 bus2=SA0002816B.1.2.3 switch=y r1=1e-4 x1=1e-4 length=0.001 units=km
new line.SC_SA0002815 phases=3 bus1=SA0002815.1.2.3 bus2=SA0002815B.1.2.3 switch=y r1=1e-4 x1=1e-4 length=0.001 units=km
new line.SC_5812857 phases=3 bus1=80468635001993.1.2.3 bus2=80468635001993B.1.2.3 switch=y r1=1e-4 x1=1e-4 length=0.001 units=km
new line.SC_DA0000421 phases=3 bus1=I888888103495001993.1.2.3 bus2=I888888103495001993B.1.2.3 switch=y r1=1e-4 x1=1e-4 length=0.001 units=km

! 5. Transformadores MT/BT de Distribuicao
new transformer.UNTRMT_5641426 phases=3 windings=2 %r=1.55 xhl=3.14 kva=112.0
~ wdg=1 bus=92891685001993.1.2.3 conn=delta kv=13.8
~ wdg=2 bus=92891685641426.1.2.3.0 conn=wye kv=0.38

new transformer.UNTRMT_5812540 phases=3 windings=2 %r=1.39 xhl=3.21 kva=150.0
~ wdg=1 bus=99437505001993.1.2.3 conn=delta kv=13.8
~ wdg=2 bus=99437505812540.1.2.3.0 conn=wye kv=0.38

new transformer.UNTRMT_5809858 phases=3 windings=2 %r=1.15 xhl=5.89 kva=500.0
~ wdg=1 bus=99300755001993.1.2.3 conn=delta kv=13.8
~ wdg=2 bus=99300755809858.1.2.3.0 conn=wye kv=0.38

new transformer.UNTRMT_5812646 phases=3 windings=2 %r=1.15 xhl=5.89 kva=75.0
~ wdg=1 bus=99439545001993.1.2.3 conn=delta kv=13.8
~ wdg=2 bus=99439545812646.1.2.3.0 conn=wye kv=0.38

new transformer.UNTRMT_5809254 phases=3 windings=2 %r=0.95 xhl=5.92 kva=1500.0
~ wdg=1 bus=99264655001993.1.2.3 conn=delta kv=13.8
~ wdg=2 bus=99264655809254.1.2.3.0 conn=wye kv=0.38

new transformer.UNTRMT_5270924 phases=3 windings=2 %r=1.46 xhl=3.18 kva=112.0
~ wdg=1 bus=80463515001993.1.2.3 conn=delta kv=13.8
~ wdg=2 bus=80463515270924.1.2.3.0 conn=wye kv=0.38

new transformer.UNTRMT_5270977 phases=3 windings=2 %r=0.95 xhl=5.92 kva=112.0
~ wdg=1 bus=80470395001993.1.2.3 conn=delta kv=13.8
~ wdg=2 bus=80470395270977.1.2.3.0 conn=wye kv=0.38

new transformer.UNTRMT_5270977_2 phases=3 windings=2 %r=0.95 xhl=5.92 kva=112.0
~ wdg=1 bus=80470395001993.1.2.3 conn=delta kv=13.8
~ wdg=2 bus=80470395270977_2.1.2.3.0 conn=wye kv=0.38

new transformer.UNTRMT_5270977_3 phases=3 windings=2 %r=1.15 xhl=5.89 kva=112.0
~ wdg=1 bus=80470395001993.1.2.3 conn=delta kv=13.8
~ wdg=2 bus=80470395270977_3.1.2.3.0 conn=wye kv=0.38

new transformer.UNTRMT_5270981 phases=3 windings=2 %r=1.46 xhl=3.18 kva=112.0
~ wdg=1 bus=80470195001993.1.2.3 conn=delta kv=13.8
~ wdg=2 bus=80470195270981.1.2.3.0 conn=wye kv=0.38

new transformer.UNTRMT_5271016 phases=3 windings=2 %r=1.46 xhl=3.18 kva=112.0
~ wdg=1 bus=80472025001993.1.2.3 conn=delta kv=13.8
~ wdg=2 bus=80472025271016.1.2.3.0 conn=wye kv=0.38

new transformer.UNTRMT_5271017 phases=3 windings=2 %r=1.68 xhl=3.07 kva=45.0
~ wdg=1 bus=80471975001993.1.2.3 conn=delta kv=13.8
~ wdg=2 bus=80471975271017.1.2.3.0 conn=wye kv=0.38

new transformer.UNTRMT_5271018 phases=3 windings=2 %r=1.46 xhl=3.18 kva=112.0
~ wdg=1 bus=80469165001993.1.2.3 conn=delta kv=13.8
~ wdg=2 bus=80469165271018.1.2.3.0 conn=wye kv=0.38

new transformer.UNTRMT_5271019 phases=3 windings=2 %r=1.39 xhl=3.21 kva=150.0
~ wdg=1 bus=80470325001993.1.2.3 conn=delta kv=13.8
~ wdg=2 bus=80470325271019.1.2.3.0 conn=wye kv=0.38

new transformer.UNTRMT_5271027 phases=3 windings=2 %r=1.78 xhl=3.01 kva=30.0
~ wdg=1 bus=80470225001993.1.2.3 conn=delta kv=13.8
~ wdg=2 bus=80470225271027.1.2.3.0 conn=wye kv=0.38

new transformer.UNTRMT_5271028 phases=3 windings=2 %r=1.46 xhl=3.18 kva=112.0
~ wdg=1 bus=80468075001993.1.2.3 conn=delta kv=13.8
~ wdg=2 bus=80468075271028.1.2.3.0 conn=wye kv=0.38

new transformer.UNTRMT_5271029 phases=3 windings=2 %r=1.46 xhl=3.18 kva=112.0
~ wdg=1 bus=80468345001993.1.2.3 conn=delta kv=13.8
~ wdg=2 bus=80468345271029.1.2.3.0 conn=wye kv=0.38

new transformer.UNTRMT_5271030 phases=3 windings=2 %r=1.55 xhl=3.14 kva=75.0
~ wdg=1 bus=80468515001993.1.2.3 conn=delta kv=13.8
~ wdg=2 bus=80468515271030.1.2.3.0 conn=wye kv=0.38

new transformer.UNTRMT_5271031 phases=3 windings=2 %r=1.78 xhl=3.01 kva=30.0
~ wdg=1 bus=80468595001993.1.2.3 conn=delta kv=13.8
~ wdg=2 bus=80468595271031.1.2.3.0 conn=wye kv=0.38

new transformer.UNTRMT_5271051 phases=3 windings=2 %r=1.39 xhl=3.21 kva=150.0
~ wdg=1 bus=80472335001993.1.2.3 conn=delta kv=13.8
~ wdg=2 bus=80472335271051.1.2.3.0 conn=wye kv=0.38

new transformer.UNTRMT_5271052 phases=3 windings=2 %r=1.39 xhl=3.21 kva=150.0
~ wdg=1 bus=80472355001993.1.2.3 conn=delta kv=13.8
~ wdg=2 bus=80472355271052.1.2.3.0 conn=wye kv=0.38

new transformer.UNTRMT_5271053 phases=3 windings=2 %r=1.46 xhl=3.18 kva=112.0
~ wdg=1 bus=80472285001993.1.2.3 conn=delta kv=13.8
~ wdg=2 bus=80472285271053.1.2.3.0 conn=wye kv=0.38

new transformer.UNTRMT_5271062 phases=3 windings=2 %r=1.02 xhl=5.91 kva=112.0
~ wdg=1 bus=98042805001993.1.2.3 conn=delta kv=13.8
~ wdg=2 bus=98042805271062.1.2.3.0 conn=wye kv=0.38

new transformer.UNTRMT_5271062_2 phases=3 windings=2 %r=1.02 xhl=5.91 kva=112.0
~ wdg=1 bus=98042805001993.1.2.3 conn=delta kv=13.8
~ wdg=2 bus=98042805271062_2.1.2.3.0 conn=wye kv=0.38

new transformer.UNTRMT_5271063 phases=3 windings=2 %r=1.02 xhl=5.91 kva=1000.0
~ wdg=1 bus=98381835001993.1.2.3 conn=delta kv=13.8
~ wdg=2 bus=98381835271063.1.2.3.0 conn=wye kv=0.38

new transformer.UNTRMT_5271520 phases=3 windings=2 %r=1.39 xhl=3.21 kva=150.0
~ wdg=1 bus=80501095001993.1.2.3 conn=delta kv=13.8
~ wdg=2 bus=80501095271520.1.2.3.0 conn=wye kv=0.38

new transformer.UNTRMT_5271521 phases=3 windings=2 %r=1.55 xhl=3.14 kva=75.0
~ wdg=1 bus=80500995001993.1.2.3 conn=delta kv=13.8
~ wdg=2 bus=80500995271521.1.2.3.0 conn=wye kv=0.38

new transformer.UNTRMT_5297554 phases=3 windings=2 %r=1.78 xhl=3.01 kva=30.0
~ wdg=1 bus=83065925001993.1.2.3 conn=delta kv=13.8
~ wdg=2 bus=83065925297554.1.2.3.0 conn=wye kv=0.38

new transformer.UNTRMT_5298312 phases=3 windings=2 %r=1.55 xhl=3.14 kva=75.0
~ wdg=1 bus=83026955001993.1.2.3 conn=delta kv=13.8
~ wdg=2 bus=83026955298312.1.2.3.0 conn=wye kv=0.38

new transformer.UNTRMT_5319290 phases=3 windings=2 %r=1.25 xhl=4.32 kva=300.0
~ wdg=1 bus=84215755001993.1.2.3 conn=delta kv=13.8
~ wdg=2 bus=84215755319290.1.2.3.0 conn=wye kv=0.38

new transformer.UNTRMT_5330672 phases=3 windings=2 %r=1.3 xhl=4.31 kva=225.0
~ wdg=1 bus=84996275001993.1.2.3 conn=delta kv=13.8
~ wdg=2 bus=84996275330672.1.2.3.0 conn=wye kv=0.38

new transformer.UNTRMT_5344193 phases=3 windings=2 %r=1.3 xhl=4.31 kva=112.0
~ wdg=1 bus=85965855001993.1.2.3 conn=delta kv=13.8
~ wdg=2 bus=85965855344193.1.2.3.0 conn=wye kv=0.38

new transformer.UNTRMT_5446205 phases=3 windings=2 %r=1.02 xhl=5.91 kva=112.0
~ wdg=1 bus=86998135001993.1.2.3 conn=delta kv=13.8
~ wdg=2 bus=86998135446205.1.2.3.0 conn=wye kv=0.38

new transformer.UNTRMT_5446205_2 phases=3 windings=2 %r=1.07 xhl=5.9 kva=112.0
~ wdg=1 bus=86998135001993.1.2.3 conn=delta kv=13.8
~ wdg=2 bus=86998135446205_2.1.2.3.0 conn=wye kv=0.38

new transformer.UNTRMT_5446205_3 phases=3 windings=2 %r=1.02 xhl=5.91 kva=112.0
~ wdg=1 bus=86998135001993.1.2.3 conn=delta kv=13.8
~ wdg=2 bus=86998135446205_3.1.2.3.0 conn=wye kv=0.38

new transformer.UNTRMT_5472250 phases=3 windings=2 %r=1.3 xhl=4.31 kva=225.0
~ wdg=1 bus=87773685001993.1.2.3 conn=delta kv=13.8
~ wdg=2 bus=87773685472250.1.2.3.0 conn=wye kv=0.38

new transformer.UNTRMT_5477274 phases=3 windings=2 %r=1.55 xhl=3.14 kva=75.0
~ wdg=1 bus=80470415001993.1.2.3 conn=delta kv=13.8
~ wdg=2 bus=80470415477274.1.2.3.0 conn=wye kv=0.38

new transformer.UNTRMT_5478837 phases=3 windings=2 %r=1.39 xhl=3.21 kva=150.0
~ wdg=1 bus=87947545001993.1.2.3 conn=delta kv=13.8
~ wdg=2 bus=87947545478837.1.2.3.0 conn=wye kv=0.38

new transformer.UNTRMT_5478838 phases=3 windings=2 %r=1.39 xhl=3.21 kva=150.0
~ wdg=1 bus=87947575001993.1.2.3 conn=delta kv=13.8
~ wdg=2 bus=87947575478838.1.2.3.0 conn=wye kv=0.38

new transformer.UNTRMT_5492246 phases=3 windings=2 %r=1.25 xhl=4.32 kva=300.0
~ wdg=1 bus=88305875001993.1.2.3 conn=delta kv=13.8
~ wdg=2 bus=88305875492246.1.2.3.0 conn=wye kv=0.38

new transformer.UNTRMT_5504414 phases=3 windings=2 %r=1.25 xhl=4.32 kva=300.0
~ wdg=1 bus=88667945001993.1.2.3 conn=delta kv=13.8
~ wdg=2 bus=88667945504414.1.2.3.0 conn=wye kv=0.38

new transformer.UNTRMT_5506529 phases=3 windings=2 %r=1.25 xhl=4.32 kva=300.0
~ wdg=1 bus=88737135001993.1.2.3 conn=delta kv=13.8
~ wdg=2 bus=88737135506529.1.2.3.0 conn=wye kv=0.38

new transformer.UNTRMT_5510168 phases=3 windings=2 %r=1.3 xhl=4.31 kva=225.0
~ wdg=1 bus=88883995001993.1.2.3 conn=delta kv=13.8
~ wdg=2 bus=88883995510168.1.2.3.0 conn=wye kv=0.38

new transformer.UNTRMT_5513145 phases=1 windings=3 %r=2.08 xhl=1.39 xht=1.39 xlt=0.97 kva=10.0
~ wdg=1 bus=88969995001993.1 conn=wye kv=7.96 kva=10.0 %r=1.04
~ wdg=2 bus=88969995513145.1.0 conn=wye kv=0.22 kva=10.0 %r=1.04
~ wdg=3 bus=88969995513145.0.2 conn=wye kv=0.22 kva=10.0 %r=1.04

new transformer.UNTRMT_5527875 phases=3 windings=2 %r=1.46 xhl=3.18 kva=112.0
~ wdg=1 bus=89425965001993.1.2.3 conn=delta kv=13.8
~ wdg=2 bus=89425965527875.1.2.3.0 conn=wye kv=0.38

new transformer.UNTRMT_5555470 phases=3 windings=2 %r=1.3 xhl=4.31 kva=225.0
~ wdg=1 bus=80469815001993.1.2.3 conn=delta kv=13.8
~ wdg=2 bus=80469815555470.1.2.3.0 conn=wye kv=0.38

new transformer.UNTRMT_5565765 phases=3 windings=2 %r=1.55 xhl=3.14 kva=75.0
~ wdg=1 bus=80467955001993.1.2.3 conn=delta kv=13.8
~ wdg=2 bus=80467955565765.1.2.3.0 conn=wye kv=0.38

new transformer.UNTRMT_5742353 phases=3 windings=2 %r=1.07 xhl=5.9 kva=75.0
~ wdg=1 bus=96116035001993.1.2.3 conn=delta kv=13.8
~ wdg=2 bus=96116035742353.1.2.3.0 conn=wye kv=0.38

! 6. Linhas de Baixa Tensao (BT)
new line.52875432 phases=3 bus1=80443985270924.1.2.3.0 bus2=80443995270924.1.2.3.0 r1=0.991 x1=0.1 length=0.038581 units=km normamps=100.0
new line.52875433 phases=3 bus1=80443995270924.1.2.3.0 bus2=80444005270924.1.2.3.0 r1=0.991 x1=0.1 length=0.033627 units=km normamps=100.0
new line.52875436 phases=3 bus1=80444025270924.1.2.3.0 bus2=80444045270924.1.2.3.0 r1=0.991 x1=0.1 length=0.028282 units=km normamps=100.0
new line.52875437 phases=3 bus1=80444035270924.1.2.3.0 bus2=80444055270924.1.2.3.0 r1=0.991 x1=0.1 length=0.010224 units=km normamps=100.0
new line.52875440 phases=3 bus1=80444055270924.1.2.3.0 bus2=80444085270924.1.2.3.0 r1=0.991 x1=0.1 length=0.016863 units=km normamps=100.0
new line.52875449 phases=3 bus1=80444015270924.1.2.3.0 bus2=80444775270924.1.2.3.0 r1=0.991 x1=0.1 length=0.053977 units=km normamps=100.0
new line.52875450 phases=3 bus1=80444025270924.1.2.3.0 bus2=80444015270924.1.2.3.0 r1=0.991 x1=0.1 length=0.012351 units=km normamps=100.0
new line.52875458 phases=3 bus1=80444145270924.1.2.3.0 bus2=80444155270924.1.2.3.0 r1=0.991 x1=0.1 length=0.008696 units=km normamps=100.0
new line.52875460 phases=3 bus1=80444165270924.1.2.3.0 bus2=80444695270924.1.2.3.0 r1=0.991 x1=0.1 length=0.010276 units=km normamps=100.0
new line.52877464 phases=3 bus1=80465765270924.1.2.3.0 bus2=80465775270924.1.2.3.0 r1=0.613 x1=0.45 length=0.04018 units=km normamps=203.0
new line.52877470 phases=1 bus1=80465225270924.1.0 bus2=80465345270924.1.0 r1=0.975 x1=0.47 length=0.047435 units=km normamps=152.0
new line.52878638 phases=3 bus1=80467805271017.1.2.3.0 bus2=80467845271017.1.2.3.0 r1=0.975 x1=0.47 length=0.010382 units=km normamps=152.0
new line.52878646 phases=3 bus1=80467895565765.1.2.3.0 bus2=80467885565765.1.2.3.0 r1=0.975 x1=0.47 length=0.02045 units=km normamps=152.0
new line.52878647 phases=3 bus1=80467945565765.1.2.3.0 bus2=80467885565765.1.2.3.0 r1=0.975 x1=0.47 length=0.0434 units=km normamps=152.0
new line.52878650 phases=3 bus1=80467975565765.1.2.3.0 bus2=80467965565765.1.2.3.0 r1=0.975 x1=0.47 length=0.04246 units=km normamps=152.0
new line.52878652 phases=3 bus1=80468095565765.1.2.3.0 bus2=80467895565765.1.2.3.0 r1=0.975 x1=0.47 length=0.035003 units=km normamps=152.0
new line.52878653 phases=3 bus1=80471935271017.1.2.3.0 bus2=80471995271017.1.2.3.0 r1=0.991 x1=0.1 length=0.034827 units=km normamps=100.0
new line.52878660 phases=3 bus1=80471945271017.1.2.3.0 bus2=80471955271017.1.2.3.0 r1=0.991 x1=0.1 length=0.035896 units=km normamps=100.0
new line.52878662 phases=3 bus1=80471965271017.1.2.3.0 bus2=80471975271017.1.2.3.0 r1=0.506 x1=0.1 length=0.04009 units=km normamps=157.0
new line.52878668 phases=3 bus1=80472035271017.1.2.3.0 bus2=80472005271017.1.2.3.0 r1=0.991 x1=0.1 length=0.017375 units=km normamps=100.0
new line.52878670 phases=3 bus1=80472055271029.1.2.3.0 bus2=80472035271029.1.2.3.0 r1=0.991 x1=0.1 length=0.023183 units=km normamps=100.0
new line.52878673 phases=3 bus1=80472075271029.1.2.3.0 bus2=80472085271029.1.2.3.0 r1=0.991 x1=0.1 length=0.014747 units=km normamps=100.0
new line.52878678 phases=3 bus1=80471685271017.1.2.3.0 bus2=95534125271017.1.2.3.0 r1=0.991 x1=0.1 length=0.010943 units=km normamps=100.0
new line.52878680 phases=3 bus1=80471705271017.1.2.3.0 bus2=80467865271017.1.2.3.0 r1=0.506 x1=0.1 length=0.039827 units=km normamps=157.0
new line.52878688 phases=3 bus1=80470675271018.1.2.3.0 bus2=80470665271018.1.2.3.0 r1=0.975 x1=0.47 length=0.028078 units=km normamps=152.0
new line.52878692 phases=3 bus1=80470705271018.1.2.3.0 bus2=80470695271018.1.2.3.0 r1=0.975 x1=0.47 length=0.036032 units=km normamps=152.0
new line.52878705 phases=1 bus1=80470805477274.1.0 bus2=80470795477274.1.0 r1=0.975 x1=0.47 length=0.028456 units=km normamps=152.0
new line.52878706 phases=3 bus1=80470815477274.1.2.3.0 bus2=80470805477274.1.2.3.0 r1=0.975 x1=0.47 length=0.032484 units=km normamps=152.0
new line.52878708 phases=3 bus1=80470845477274.1.2.3.0 bus2=80470835477274.1.2.3.0 r1=0.975 x1=0.47 length=0.032336 units=km normamps=152.0
new line.52878718 phases=3 bus1=80468755271018.1.2.3.0 bus2=94595495271018.1.2.3.0 r1=0.506 x1=0.1 length=0.010443 units=km normamps=157.0
new line.52878722 phases=3 bus1=80468785271018.1.2.3.0 bus2=80468795271018.1.2.3.0 r1=0.991 x1=0.1 length=0.041071 units=km normamps=100.0
new line.52878725 phases=3 bus1=80468815271018.1.2.3.0 bus2=80468825271018.1.2.3.0 r1=0.975 x1=0.47 length=0.041017 units=km normamps=152.0
new line.52878731 phases=3 bus1=80468735271018.1.2.3.0 bus2=80469125271018.1.2.3.0 r1=0.613 x1=0.45 length=0.007421 units=km normamps=203.0
new line.52878733 phases=3 bus1=80469125271018.1.2.3.0 bus2=80469135271018.1.2.3.0 r1=0.613 x1=0.45 length=0.009513 units=km normamps=203.0
new line.52878734 phases=3 bus1=80469135271018.1.2.3.0 bus2=80469145271018.1.2.3.0 r1=0.613 x1=0.45 length=0.029724 units=km normamps=203.0
new line.52878736 phases=3 bus1=80469155271018.1.2.3.0 bus2=88305865271018.1.2.3.0 r1=0.613 x1=0.45 length=0.016128 units=km normamps=203.0
new line.52878738 phases=3 bus1=80469165271018.1.2.3.0 bus2=80469185271018.1.2.3.0 r1=0.613 x1=0.45 length=0.043706 units=km normamps=203.0
new line.52878741 phases=3 bus1=80470335271018.1.2.3.0 bus2=80470345271018.1.2.3.0 r1=0.975 x1=0.47 length=0.040328 units=km normamps=152.0
new line.52878745 phases=3 bus1=80470085477274.1.2.3.0 bus2=80467715477274.1.2.3.0 r1=0.506 x1=0.1 length=0.040328 units=km normamps=157.0
new line.52878878 phases=3 bus1=80470895477274.1.2.3.0 bus2=80470085477274.1.2.3.0 r1=0.975 x1=0.47 length=0.035916 units=km normamps=152.0
new line.52878887 phases=3 bus1=80467795271028.1.2.3.0 bus2=80467905271028.1.2.3.0 r1=0.613 x1=0.45 length=0.034601 units=km normamps=203.0
new line.52878890 phases=3 bus1=80467935271028.1.2.3.0 bus2=80467925271028.1.2.3.0 r1=0.613 x1=0.45 length=0.030674 units=km normamps=203.0
new line.52878892 phases=3 bus1=80468045271028.1.2.3.0 bus2=80467935271028.1.2.3.0 r1=0.613 x1=0.45 length=0.010869 units=km normamps=203.0
new line.52878894 phases=3 bus1=80468065271028.1.2.3.0 bus2=80468045271028.1.2.3.0 r1=0.613 x1=0.45 length=0.022703 units=km normamps=203.0
new line.52878899 phases=3 bus1=80468115271028.1.2.3.0 bus2=80468105271028.1.2.3.0 r1=0.975 x1=0.47 length=0.038424 units=km normamps=152.0
new line.52878900 phases=3 bus1=80468125271028.1.2.3.0 bus2=80468115271028.1.2.3.0 r1=0.975 x1=0.47 length=0.026596 units=km normamps=152.0
new line.52878914 phases=3 bus1=80468145271028.1.2.3.0 bus2=80468135271028.1.2.3.0 r1=0.975 x1=0.47 length=0.023872 units=km normamps=152.0
new line.52878918 phases=3 bus1=80468165271028.1.2.3.0 bus2=80468155271028.1.2.3.0 r1=0.975 x1=0.47 length=0.032538 units=km normamps=152.0
new line.52878919 phases=3 bus1=80468175271028.1.2.3.0 bus2=80468165271028.1.2.3.0 r1=0.975 x1=0.47 length=0.027294 units=km normamps=152.0
new line.52878928 phases=3 bus1=80468305271029.1.2.3.0 bus2=80468315271029.1.2.3.0 r1=0.506 x1=0.1 length=0.024067 units=km normamps=157.0
new line.52878929 phases=3 bus1=80468295271029.1.2.3.0 bus2=80468315271029.1.2.3.0 r1=0.991 x1=0.1 length=0.032767 units=km normamps=100.0
new line.52878932 phases=3 bus1=80468345271029.1.2.3.0 bus2=80468305271029.1.2.3.0 r1=0.506 x1=0.1 length=0.031722 units=km normamps=157.0
new line.52878953 phases=3 bus1=80472095271029.1.2.3.0 bus2=80472105271029.1.2.3.0 r1=0.991 x1=0.1 length=0.024711 units=km normamps=100.0
new line.52878955 phases=3 bus1=80472135271029.1.2.3.0 bus2=80472145271029.1.2.3.0 r1=0.991 x1=0.1 length=0.031279 units=km normamps=100.0
new line.52878960 phases=3 bus1=80468235271030.1.2.3.0 bus2=80468215271030.1.2.3.0 r1=0.975 x1=0.47 length=0.026655 units=km normamps=152.0
new line.52878961 phases=3 bus1=80468245271030.1.2.3.0 bus2=80468235271030.1.2.3.0 r1=0.975 x1=0.47 length=0.035921 units=km normamps=152.0
new line.52878962 phases=3 bus1=80468255271030.1.2.3.0 bus2=80468245271030.1.2.3.0 r1=0.975 x1=0.47 length=0.036928 units=km normamps=152.0
new line.52878965 phases=3 bus1=80468435271030.1.2.3.0 bus2=80468445271030.1.2.3.0 r1=0.975 x1=0.47 length=0.033173 units=km normamps=152.0
new line.52878967 phases=3 bus1=80468455271030.1.2.3.0 bus2=80468465271030.1.2.3.0 r1=0.975 x1=0.47 length=0.043712 units=km normamps=152.0
new line.52878972 phases=3 bus1=80468515271030.1.2.3.0 bus2=80468495271030.1.2.3.0 r1=0.613 x1=0.45 length=0.036632 units=km normamps=203.0
new line.52878975 phases=3 bus1=80471425271030.1.2.3.0 bus2=80471435271030.1.2.3.0 r1=0.975 x1=0.47 length=0.047082 units=km normamps=152.0
new line.52883068 phases=3 bus1=80500995271521.1.2.3.0 bus2=80500965271521.1.2.3.0 r1=0.506 x1=0.1 length=0.014731 units=km normamps=157.0
new line.52883069 phases=3 bus1=80500965271521.1.2.3.0 bus2=80500955271521.1.2.3.0 r1=0.506 x1=0.1 length=0.012802 units=km normamps=157.0
new line.52883070 phases=3 bus1=80500955271521.1.2.3.0 bus2=80500945271521.1.2.3.0 r1=0.506 x1=0.1 length=0.031126 units=km normamps=157.0
new line.52883071 phases=3 bus1=80500965271521.1.2.3.0 bus2=80500975271521.1.2.3.0 r1=0.506 x1=0.1 length=0.046021 units=km normamps=157.0
new line.52883078 phases=3 bus1=80472185271521.1.2.3.0 bus2=93763485271521.1.2.3.0 r1=0.506 x1=0.1 length=0.006307 units=km normamps=157.0
new line.52883083 phases=3 bus1=80472345271521.1.2.3.0 bus2=80472365271521.1.2.3.0 r1=0.506 x1=0.1 length=0.019385 units=km normamps=157.0
new line.52883084 phases=3 bus1=80472365271521.1.2.3.0 bus2=80472375271521.1.2.3.0 r1=0.506 x1=0.1 length=0.021953 units=km normamps=157.0
new line.52883085 phases=3 bus1=80472375271521.1.2.3.0 bus2=80472385271521.1.2.3.0 r1=0.506 x1=0.1 length=0.024414 units=km normamps=157.0
new line.52883087 phases=3 bus1=80472395271521.1.2.3.0 bus2=80472385271521.1.2.3.0 r1=0.991 x1=0.1 length=0.042114 units=km normamps=100.0
new line.52883088 phases=3 bus1=80500955271521.1.2.3.0 bus2=80501035271521.1.2.3.0 r1=0.506 x1=0.1 length=0.014965 units=km normamps=157.0
new line.52883091 phases=3 bus1=80500845271521.1.2.3.0 bus2=95320485271521.1.2.3.0 r1=0.975 x1=0.47 length=0.006379 units=km normamps=152.0
new line.52883092 phases=3 bus1=80500855271521.1.2.3.0 bus2=80500845271521.1.2.3.0 r1=0.975 x1=0.47 length=0.031501 units=km normamps=152.0
new line.52883096 phases=3 bus1=80500825271521.1.2.3.0 bus2=80500885271521.1.2.3.0 r1=1.551 x1=0.49 length=0.02629 units=km normamps=114.0
new line.52883097 phases=3 bus1=80500835271521.1.2.3.0 bus2=80472155271521.1.2.3.0 r1=0.506 x1=0.1 length=0.030064 units=km normamps=157.0
new line.52888519 phases=3 bus1=80537505271030.1.2.3.0 bus2=80537525271030.1.2.3.0 r1=0.991 x1=0.1 length=0.035841 units=km normamps=100.0
new line.52888520 phases=3 bus1=80537525271030.2.3.0 bus2=80537535271030.2.3.0 r1=0.984 x1=0.49 length=0.024848 units=km normamps=170.0
new line.52888568 phases=3 bus1=80537035271028.1.2.3.0 bus2=80537025271028.1.2.3.0 r1=0.613 x1=0.45 length=0.03543 units=km normamps=203.0
new line.53846028 phases=3 bus1=80471445271030.1.2.3.0 bus2=91116915271030.1.2.3.0 r1=0.991 x1=0.1 length=0.020474 units=km normamps=100.0
new line.53994315 phases=3 bus1=80472265477274.1.2.3.0 bus2=80472275477274.1.2.3.0 r1=0.506 x1=0.1 length=0.038176 units=km normamps=157.0
new line.54004741 phases=3 bus1=85320125271018.1.2.3.0 bus2=85320075271018.1.2.3.0 r1=0.975 x1=0.47 length=0.024868 units=km normamps=152.0
new line.54044274 phases=3 bus1=80470395270977.1.2.3.0 bus2=85628065270977.1.2.3.0 r1=0.975 x1=0.47 length=0.002225 units=km normamps=152.0
new line.54087921 phases=3 bus1=85965845477274.1.2.3.0 bus2=80470425477274.1.2.3.0 r1=0.506 x1=0.1 length=0.018969 units=km normamps=157.0
new line.54910055 phases=3 bus1=80468765271018.1.2.3.0 bus2=92371775271018.1.2.3.0 r1=0.975 x1=0.47 length=0.016776 units=km normamps=152.0
new line.54910059 phases=3 bus1=80468755271018.1.2.3.0 bus2=92371775271018.1.2.3.0 r1=0.991 x1=0.1 length=0.018537 units=km normamps=100.0
new line.54939058 phases=3 bus1=92583035271018.1.2.3.0 bus2=92583025271018.1.2.3.0 r1=0.991 x1=0.1 length=0.027675 units=km normamps=100.0
new line.55062815 phases=3 bus1=93506015271521.1.2.3.0 bus2=80501005271521.1.2.3.0 r1=0.506 x1=0.1 length=0.010606 units=km normamps=157.0
new line.55149637 phases=3 bus1=93763485271521.1.2.3.0 bus2=94178735271521.1.2.3.0 r1=0.506 x1=0.1 length=0.011534 units=km normamps=157.0
new line.55190603 phases=3 bus1=94480965477274.1.2.3.0 bus2=94480945477274.1.2.3.0 r1=0.506 x1=0.1 length=0.006718 units=km normamps=157.0
new line.55224863 phases=3 bus1=85320105271018.1.2.3.0 bus2=94723035271018.1.2.3.0 r1=0.991 x1=0.1 length=0.018266 units=km normamps=100.0
new line.55293386 phases=3 bus1=95320475271521.1.2.3.0 bus2=95320495271521.1.2.3.0 r1=0.975 x1=0.47 length=0.009157 units=km normamps=152.0
new line.55293390 phases=3 bus1=95320495271521.1.2.3.0 bus2=80500835271521.1.2.3.0 r1=0.975 x1=0.47 length=0.010241 units=km normamps=152.0
new line.55321476 phases=3 bus1=95534125271017.1.2.3.0 bus2=80471675271017.1.2.3.0 r1=0.991 x1=0.1 length=0.009417 units=km normamps=100.0
new line.55744379 phases=3 bus1=98561475271521.1.2.3.0 bus2=98561465271521.1.2.3.0 r1=0.991 x1=0.1 length=0.019535 units=km normamps=100.0
new line.55744383 phases=3 bus1=98561415271521.1.2.3.0 bus2=98561425271521.1.2.3.0 r1=0.991 x1=0.1 length=0.032071 units=km normamps=100.0
new line.55744385 phases=3 bus1=98561395271521.1.2.3.0 bus2=98561535271521.1.2.3.0 r1=0.991 x1=0.1 length=0.018434 units=km normamps=100.0
new line.55817654 phases=3 bus1=99260055271018.1.2.3.0 bus2=92023205271018.1.2.3.0 r1=0.506 x1=0.1 length=0.031497 units=km normamps=157.0
new line.55851495 phases=3 bus1=99448405271029.1.2.3.0 bus2=99448415271029.1.2.3.0 r1=0.991 x1=0.1 length=0.029766 units=km normamps=100.0
new line.55851498 phases=3 bus1=99448435271029.1.2.3.0 bus2=99448445271029.1.2.3.0 r1=0.991 x1=0.1 length=0.021247 units=km normamps=100.0
new line.55851505 phases=3 bus1=99476975271029.1.2.3.0 bus2=99476985271029.1.2.3.0 r1=0.991 x1=0.1 length=0.039388 units=km normamps=100.0
new line.55851511 phases=3 bus1=99477005271029.1.2.3.0 bus2=99491515271029.1.2.3.0 r1=0.732 x1=0.1 length=0.029969 units=km normamps=122.0
new line.55851545 phases=3 bus1=80508415271029.1.2.3.0 bus2=99448385271029.1.2.3.0 r1=0.732 x1=0.1 length=0.027945 units=km normamps=122.0
new line.52875431 phases=3 bus1=80443975270924.1.2.3.0 bus2=80443985270924.1.2.3.0 r1=0.991 x1=0.1 length=0.03587 units=km normamps=100.0
new line.52877460 phases=1 bus1=80465355270924.1.0 bus2=80465735270924.1.0 r1=0.975 x1=0.47 length=0.053544 units=km normamps=152.0
new line.52877461 phases=3 bus1=80465735270924.1.2.3.0 bus2=80465745270924.1.2.3.0 r1=0.991 x1=0.1 length=0.016958 units=km normamps=100.0
new line.52877463 phases=3 bus1=80465755270924.1.2.3.0 bus2=80465765270924.1.2.3.0 r1=0.991 x1=0.1 length=0.011305 units=km normamps=100.0
new line.52877465 phases=3 bus1=80465775270924.1.2.3.0 bus2=80463485270924.1.2.3.0 r1=0.613 x1=0.45 length=0.029281 units=km normamps=203.0
new line.52877469 phases=3 bus1=80463515270924.1.2.3.0 bus2=80465405270924.1.2.3.0 r1=0.613 x1=0.45 length=0.029728 units=km normamps=203.0
new line.52878639 phases=3 bus1=80467845271017.1.2.3.0 bus2=80467835271017.1.2.3.0 r1=0.975 x1=0.47 length=0.03083 units=km normamps=152.0
new line.52878640 phases=3 bus1=80467845271017.1.2.3.0 bus2=80467815271017.1.2.3.0 r1=0.975 x1=0.47 length=0.019854 units=km normamps=152.0
new line.52878649 phases=3 bus1=80467965565765.1.2.3.0 bus2=80467955565765.1.2.3.0 r1=0.975 x1=0.47 length=0.039512 units=km normamps=152.0
new line.52878656 phases=3 bus1=80471875271017.1.2.3.0 bus2=80471885271017.1.2.3.0 r1=0.975 x1=0.47 length=0.030633 units=km normamps=152.0
new line.52878658 phases=3 bus1=80471895271017.1.2.3.0 bus2=80471905271017.1.2.3.0 r1=0.991 x1=0.1 length=0.030291 units=km normamps=100.0
new line.52878661 phases=3 bus1=80471955271017.1.2.3.0 bus2=80471965271017.1.2.3.0 r1=0.506 x1=0.1 length=0.039338 units=km normamps=157.0
new line.52878663 phases=3 bus1=80471975271017.1.2.3.0 bus2=80471985271017.1.2.3.0 r1=0.506 x1=0.1 length=0.030938 units=km normamps=157.0
new line.52878675 phases=3 bus1=80472115271029.1.2.3.0 bus2=80472055271029.1.2.3.0 r1=0.991 x1=0.1 length=0.038256 units=km normamps=100.0
new line.52878686 phases=3 bus1=80470635271018.1.2.3.0 bus2=80470645271018.1.2.3.0 r1=0.975 x1=0.47 length=0.029505 units=km normamps=152.0
new line.52878687 phases=3 bus1=80470665271018.1.2.3.0 bus2=80470645271018.1.2.3.0 r1=0.975 x1=0.47 length=0.025252 units=km normamps=152.0
new line.52878691 phases=3 bus1=80470695271018.1.2.3.0 bus2=80470685271018.1.2.3.0 r1=0.975 x1=0.47 length=0.010568 units=km normamps=152.0
new line.52878707 phases=3 bus1=80470825477274.1.2.3.0 bus2=80470815477274.1.2.3.0 r1=0.975 x1=0.47 length=0.035903 units=km normamps=152.0
new line.52878709 phases=3 bus1=80470855477274.1.2.3.0 bus2=80470845477274.1.2.3.0 r1=0.975 x1=0.47 length=0.038793 units=km normamps=152.0
new line.52878711 phases=3 bus1=80470875477274.1.2.3.0 bus2=80470865477274.1.2.3.0 r1=0.991 x1=0.1 length=0.034568 units=km normamps=100.0
new line.52878712 phases=3 bus1=80470885477274.1.2.3.0 bus2=80470875477274.1.2.3.0 r1=0.991 x1=0.1 length=0.042551 units=km normamps=100.0
...